test/resources/V1_8/optionalLoadTypeBug.xml
<?xml version="1.0" encoding="UTF-8"?>
<iidm:network xmlns:iidm="http://www.powsybl.org/schema/iidm/1_8" id="test" caseDate="2014-02-12T13:19:17+01:00" forecastDistance="0" sourceFormat="???" minimumValidationLevel="STEADY_STATE_HYPOTHESIS">
    <iidm:substation id="S" country="FR" tso="RTE">
        <iidm:voltageLevel id="V" nominalV="380" topologyKind="BUS_BREAKER">
            <iidm:busBreakerTopology>
                <iidm:bus id="B"/>
            </iidm:busBreakerTopology>
            <iidm:load id="L" p0="1" q0="2" bus="B" connectableBus="B"/>
        </iidm:voltageLevel>
    </iidm:substation>
</iidm:network>
